Circuit: * C:\Users\My PC\OneDrive\Desktop\Pll.asc

